/*--------------------------------*- C++ -*----------------------------------*\
| =========                 |                                                 |
| \\      /  F ield         | OpenFOAM: The Open Source CFD Toolbox           |
|  \\    /   O peration     | Version:  2306                                  |
|   \\  /    A nd           | Website:  www.openfoam.com                      |
|    \\/     M anipulation  |                                                 |
\*---------------------------------------------------------------------------*/
FoamFile
{
    version     2.0;
    format      ascii;
    arch        "LSB;label=32;scalar=64";
    class       polyBoundaryMesh;
    location    "constant/polyMesh";
    object      boundary;
}
// * * * * * * * * * * * * * * * * * * * * * * * * * * * * * * * * * * * * * //

5
(
    movingWall
    {
        type            wall;
        inGroups        1(wall);
        nFaces          3;
        startFace       12;
    }
    fixedWalls
    {
        type            wall;
        inGroups        1(wall);
        nFaces          3;
        startFace       15;
    }
    frontAndBack
    {
        type            empty;
        inGroups        1(empty);
        nFaces          18;
        startFace       18;
    }
    procBoundary2to0
    {
        type            processor;
        inGroups        1(processor);
        nFaces          3;
        startFace       36;
        matchTolerance  0.0001;
        transform       unknown;
        myProcNo        2;
        neighbProcNo    0;
    }
    procBoundary2to3
    {
        type            processor;
        inGroups        1(processor);
        nFaces          3;
        startFace       39;
        matchTolerance  0.0001;
        transform       unknown;
        myProcNo        2;
        neighbProcNo    3;
    }
)

// ************************************************************************* //
